<?xml version="1.0" encoding="UTF-8"?>

<!-- generated on 2026-06-19T11:50:10.700860+05:30 by Eclipse SUMO netedit 1.27.0
<neteditConfiguration xmlns:xsi="http://www.w3.org/2001/XMLSchema-instance" xsi:noNamespaceSchemaLocation="http://sumo.dlr.de/xsd/neteditConfiguration.xsd">

    <input>
        <sumo-net-file value="C:\Users\Lenovo\Downloads\AI_Metro_Digital_Twin\osm\indore_construction.net.xml"/>
    </input>

    <output>
        <output-file value="C:\Users\Lenovo\Downloads\AI_Metro_Digital_Twin\osm\indore_construction.net.xml"/>
    </output>

    <processing>
        <geometry.min-radius.fix.railways value="false"/>
        <geometry.avoid-overlap value="false"/>
        <geometry.max-grade.fix value="false"/>
        <offset.disable-normalization value="true"/>
    </processing>

    <junctions>
        <no-turnarounds value="true"/>
    </junctions>

</neteditConfiguration>
-->

<net version="1.20" junctionCornerDetail="5" limitTurnSpeed="5.50" avoidOverlap="0" xmlns:xsi="http://www.w3.org/2001/XMLSchema-instance" xsi:noNamespaceSchemaLocation="http://sumo.dlr.de/xsd/net_file.xsd">

    <location netOffset="-591434.25,-2515990.52" convBoundary="0.00,0.00,1342.84,750.52" origBoundary="75.868950,22.728965,75.907443,22.790073" projParameter="+proj=utm +zone=43 +ellps=WGS84 +datum=WGS84 +units=m +no_defs"/>

    <type id="highway.busway" priority="1" numLanes="1" speed="27.78" allow="bus" oneway="1"/>
    <type id="highway.footway" priority="1" numLanes="1" speed="2.78" allow="pedestrian" oneway="1" width="2.00"/>
    <type id="highway.primary" priority="12" numLanes="2" speed="27.78" disallow="tram rail_urban rail rail_electric rail_fast ship container cable_car subway aircraft wheelchair scooter drone" oneway="0"/>
    <type id="highway.residential" priority="3" numLanes="1" speed="13.89" disallow="tram rail_urban rail rail_electric rail_fast ship container cable_car subway aircraft wheelchair scooter drone" oneway="0"/>
    <type id="highway.secondary" priority="11" numLanes="1" speed="27.78" disallow="tram rail_urban rail rail_electric rail_fast ship container cable_car subway aircraft wheelchair scooter drone" oneway="0"/>
    <type id="highway.secondary_link" priority="6" numLanes="1" speed="22.22" disallow="tram rail_urban rail rail_electric rail_fast ship container cable_car subway aircraft wheelchair scooter drone" oneway="0"/>
    <type id="highway.service" priority="1" numLanes="1" speed="5.56" allow="pedestrian delivery bicycle" oneway="0"/>
    <type id="highway.steps" priority="1" numLanes="1" speed="1.39" allow="pedestrian" oneway="1" width="2.00"/>
    <type id="highway.tertiary" priority="10" numLanes="1" speed="22.22" disallow="tram rail_urban rail rail_electric rail_fast ship container cable_car subway aircraft wheelchair scooter drone" oneway="0"/>

    <edge id=":10316472614_0" function="internal">
        <lane id=":10316472614_0_0" index="0" disallow="tram rail_urban rail rail_electric rail_fast ship container cable_car subway aircraft wheelchair scooter drone" speed="13.89" length="14.57" shape="713.95,367.38 710.25,353.29"/>
    </edge>
    <edge id=":10316472614_1" function="internal">
        <lane id=":10316472614_1_0" index="0" disallow="tram rail_urban rail rail_electric rail_fast ship container cable_car subway aircraft wheelchair scooter drone" speed="7.76" length="4.29" shape="713.95,367.38 713.44,363.27 713.49,363.14"/>
    </edge>
    <edge id=":10316472614_2" function="internal">
        <lane id=":10316472614_2_0" index="0" disallow="tram rail_urban rail rail_electric rail_fast ship container cable_car subway aircraft wheelchair scooter drone" speed="3.65" length="1.44" shape="713.95,367.38 714.41,366.02"/>
    </edge>
    <edge id=":10316472614_9" function="internal">
        <lane id=":10316472614_9_0" index="0" disallow="tram rail_urban rail rail_electric rail_fast ship container cable_car subway aircraft wheelchair scooter drone" speed="7.76" length="10.50" shape="713.49,363.14 714.43,360.18 716.93,358.09 720.93,357.02"/>
    </edge>
    <edge id=":10316472614_10" function="internal">
        <lane id=":10316472614_10_0" index="0" disallow="tram rail_urban rail rail_electric rail_fast ship container cable_car subway aircraft wheelchair scooter drone" speed="3.65" length="3.23" shape="714.41,366.02 715.07,365.42 715.95,365.59 717.04,366.54"/>
    </edge>
    <edge id=":10316472614_3" function="internal">
        <lane id=":10316472614_3_0" index="0" disallow="tram rail_urban rail rail_electric rail_fast ship container cable_car subway aircraft wheelchair scooter drone" speed="6.21" length="9.05" shape="721.31,360.20 718.86,360.85 717.33,362.13 716.73,364.03 717.04,366.54"/>
    </edge>
    <edge id=":10316472614_4" function="internal">
        <lane id=":10316472614_4_0" index="0" disallow="tram rail_urban rail rail_electric rail_fast ship container cable_car subway aircraft wheelchair scooter drone" speed="8.47" length="14.48" shape="721.31,360.20 717.22,360.17 714.02,359.01 711.69,356.72 710.25,353.29"/>
    </edge>
    <edge id=":10316472614_5" function="internal">
        <lane id=":10316472614_5_0" index="0" disallow="tram rail_urban rail rail_electric rail_fast ship container cable_car subway aircraft wheelchair scooter drone" speed="3.65" length="4.67" shape="721.31,360.20 720.02,359.55 719.53,358.80 719.84,357.96 720.93,357.02"/>
    </edge>
    <edge id=":10316472614_6" function="internal">
        <lane id=":10316472614_6_0" index="0" disallow="tram rail_urban rail rail_electric rail_fast ship container cable_car subway aircraft wheelchair scooter drone" speed="7.06" length="9.78" shape="713.36,352.52 714.32,354.77 715.91,356.27 718.11,357.02 720.93,357.02"/>
    </edge>
    <edge id=":10316472614_7" function="internal">
        <lane id=":10316472614_7_0" index="0" disallow="tram rail_urban rail rail_electric rail_fast ship container cable_car subway aircraft wheelchair scooter drone" speed="13.89" length="14.50" shape="713.36,352.52 717.04,366.54"/>
    </edge>
    <edge id=":10316472614_8" function="internal">
        <lane id=":10316472614_8_0" index="0" disallow="tram rail_urban rail rail_electric rail_fast ship container cable_car subway aircraft wheelchair scooter drone" speed="3.65" length="1.44" shape="713.36,352.52 712.87,353.88"/>
    </edge>
    <edge id=":10316472614_11" function="internal">
        <lane id=":10316472614_11_0" index="0" disallow="tram rail_urban rail rail_electric rail_fast ship container cable_car subway aircraft wheelchair scooter drone" speed="3.65" length="3.23" shape="712.87,353.88 712.19,354.46 711.32,354.26 710.25,353.29"/>
    </edge>
    <edge id=":11743344252_0" function="internal">
        <lane id=":11743344252_0_0" index="0" disallow="tram rail_urban rail rail_electric rail_fast ship container cable_car subway aircraft wheelchair scooter drone" speed="6.61" length="9.17" shape="278.30,331.46 277.33,329.12 275.87,327.62 273.91,326.96 271.45,327.16"/>
    </edge>
    <edge id=":11743344252_1" function="internal">
        <lane id=":11743344252_1_0" index="0" disallow="tram rail_urban rail rail_electric rail_fast ship container cable_car subway aircraft wheelchair scooter drone" speed="7.95" length="14.30" shape="278.30,331.46 277.87,327.56 278.80,324.48 281.10,322.24 284.77,320.82"/>
    </edge>
    <edge id=":11743344252_2" function="internal">
        <lane id=":11743344252_2_0" index="0" disallow="tram rail_urban rail rail_electric rail_fast ship container cable_car subway aircraft wheelchair scooter drone" speed="3.65" length="4.67" shape="278.30,331.46 278.77,330.10 279.45,329.52 280.32,329.70 281.40,330.67"/>
    </edge>
    <edge id=":11743344252_3" function="internal">
        <lane id=":11743344252_3_0" index="0" disallow="tram rail_urban rail rail_electric rail_fast ship container cable_car subway aircraft wheelchair scooter drone" speed="6.45" length="9.03" shape="285.49,323.94 283.17,324.83 281.71,326.25 281.12,328.20 281.40,330.67"/>
    </edge>
    <edge id=":11743344252_4" function="internal">
        <lane id=":11743344252_4_0" index="0" disallow="tram rail_urban rail rail_electric rail_fast ship container cable_car subway aircraft wheelchair scooter drone" speed="22.22" length="14.40" shape="285.49,323.94 271.45,327.16"/>
    </edge>
    <edge id=":11743344252_5" function="internal">
        <lane id=":11743344252_5_0" index="0" disallow="tram rail_urban rail rail_electric rail_fast ship container cable_car subway aircraft wheelchair scooter drone" speed="3.65" length="1.44" shape="285.49,323.94 284.14,323.43"/>
    </edge>
    <edge id=":11743344252_9" function="internal">
        <lane id=":11743344252_9_0" index="0" disallow="tram rail_urban rail rail_electric rail_fast ship container cable_car subway aircraft wheelchair scooter drone" speed="3.65" length="3.23" shape="284.14,323.43 283.57,322.74 283.78,321.87 284.77,320.82"/>
    </edge>
    <edge id=":11743344252_6" function="internal">
        <lane id=":11743344252_6_0" index="0" disallow="tram rail_urban rail rail_electric rail_fast ship container cable_car subway aircraft wheelchair scooter drone" speed="22.22" length="14.40" shape="270.74,324.04 284.77,320.82"/>
    </edge>
    <edge id=":11743344252_7" function="internal">
        <lane id=":11743344252_7_0" index="0" disallow="tram rail_urban rail rail_electric rail_fast ship container cable_car subway aircraft wheelchair scooter drone" speed="8.09" length="4.02" shape="270.74,324.04 274.57,323.73 274.74,323.78"/>
    </edge>
    <edge id=":11743344252_8" function="internal">
        <lane id=":11743344252_8_0" index="0" disallow="tram rail_urban rail rail_electric rail_fast ship container cable_car subway aircraft wheelchair scooter drone" speed="3.65" length="1.44" shape="270.74,324.04 272.08,324.55"/>
    </edge>
    <edge id=":11743344252_10" function="internal">
        <lane id=":11743344252_10_0" index="0" disallow="tram rail_urban rail rail_electric rail_fast ship container cable_car subway aircraft wheelchair scooter drone" speed="8.09" length="10.21" shape="274.74,323.78 277.63,324.73 279.90,327.04 281.40,330.67"/>
    </edge>
    <edge id=":11743344252_11" function="internal">
        <lane id=":11743344252_11_0" index="0" disallow="tram rail_urban rail rail_electric rail_fast ship container cable_car subway aircraft wheelchair scooter drone" speed="3.65" length="3.23" shape="272.08,324.55 272.65,325.24 272.44,326.11 271.45,327.16"/>
    </edge>
    <edge id=":12564725465_0" function="internal">
        <lane id=":12564725465_0_0" index="0" allow="pedestrian delivery bicycle" speed="3.65" length="4.67" shape="196.61,71.51 197.06,70.14 197.72,69.54 198.60,69.71 199.69,70.65"/>
    </edge>
    <edge id=":12564725477_0" function="internal">
        <lane id=":12564725477_0_0" index="0" allow="pedestrian delivery bicycle" speed="3.65" length="4.67" shape="317.02,77.88 318.37,78.38 318.95,79.07 318.74,79.94 317.76,81.00"/>
    </edge>
    <edge id=":13437886188_0" function="internal">
        <lane id=":13437886188_0_0" index="0" disallow="tram rail_urban rail rail_electric rail_fast ship container cable_car subway aircraft wheelchair scooter drone" speed="13.89" length="5.00" shape="329.41,255.13 324.54,256.27"/>
    </edge>
    <edge id=":13437886188_1" function="internal">
        <lane id=":13437886188_1_0" index="0" disallow="tram rail_urban rail rail_electric rail_fast ship container cable_car subway aircraft wheelchair scooter drone" speed="13.89" length="5.01" shape="323.81,253.16 328.69,252.02"/>
    </edge>
    <edge id=":13713276869_0" function="internal">
        <lane id=":13713276869_0_0" index="0" disallow="tram rail_urban rail rail_electric rail_fast ship container cable_car subway aircraft wheelchair scooter drone" speed="27.78" length="4.28" shape="538.82,337.63 537.97,333.03"/>
        <lane id=":13713276869_0_1" index="1" disallow="tram rail_urban rail rail_electric rail_fast ship container cable_car subway aircraft wheelchair scooter drone" speed="27.78" length="4.28" shape="541.97,337.05 541.19,332.84"/>
        <lane id=":13713276869_0_2" index="2" disallow="tram rail_urban rail rail_electric rail_fast ship container cable_car subway aircraft wheelchair scooter drone" speed="27.78" length="4.28" shape="545.11,336.46 544.41,332.64"/>
    </edge>
    <edge id=":13713276869_3" function="internal">
        <lane id=":13713276869_3_0" index="0" disallow="tram rail_urban rail rail_electric rail_fast ship container cable_car subway aircraft wheelchair scooter drone" speed="5.99" length="7.03" shape="545.11,336.46 544.74,333.77 544.74,331.77 545.11,330.48 545.86,329.87"/>
    </edge>
    <edge id=":13713276869_4" function="internal">
        <lane id=":13713276869_4_0" index="0" disallow="tram rail_urban rail rail_electric rail_fast ship container cable_car subway aircraft wheelchair scooter drone" speed="5.26" length="5.88" shape="546.70,332.96 544.39,333.48 542.71,333.64 541.64,333.42 541.19,332.84"/>
        <lane id=":13713276869_4_1" index="1" disallow="tram rail_urban rail rail_electric rail_fast ship container cable_car subway aircraft wheelchair scooter drone" speed="3.84" length="2.62" shape="546.70,332.96 545.96,333.16 545.26,333.27 544.70,333.15 544.41,332.64"/>
    </edge>
    <edge id=":13713276869_6" function="internal">
        <lane id=":13713276869_6_0" index="0" disallow="tram rail_urban rail rail_electric rail_fast ship container cable_car subway aircraft wheelchair scooter drone" speed="3.65" length="4.67" shape="546.70,332.96 545.33,332.50 544.73,331.84 544.91,330.96 545.86,329.87"/>
    </edge>
    <edge id=":13713276870_0" function="internal">
        <lane id=":13713276870_0_0" index="0" disallow="tram rail_urban rail rail_electric rail_fast ship container cable_car subway aircraft wheelchair scooter drone" speed="27.78" length="9.26" shape="569.44,221.84 560.27,223.09"/>
        <lane id=":13713276870_0_1" index="1" disallow="tram rail_urban rail rail_electric rail_fast ship container cable_car subway aircraft wheelchair scooter drone" speed="27.78" length="9.26" shape="568.96,218.68 559.79,219.92"/>
    </edge>
    <edge id=":13713276870_2" function="internal">
        <lane id=":13713276870_2_0" index="0" disallow="tram rail_urban rail rail_electric rail_fast ship container cable_car subway aircraft wheelchair scooter drone" speed="13.33" length="9.29" shape="568.96,218.68 566.31,218.81 564.51,218.31 562.78,217.34 560.30,216.08"/>
    </edge>
    <edge id=":13713276872_0" function="internal">
        <lane id=":13713276872_0_0" index="0" disallow="tram rail_urban rail rail_electric rail_fast ship container cable_car subway aircraft wheelchair scooter drone" speed="27.78" length="19.25" shape="511.18,205.12 503.00,187.69"/>
        <lane id=":13713276872_0_1" index="1" disallow="tram rail_urban rail rail_electric rail_fast ship container cable_car subway aircraft wheelchair scooter drone" speed="27.78" length="19.25" shape="514.08,203.76 505.90,186.33"/>
        <lane id=":13713276872_0_2" index="2" disallow="tram rail_urban rail rail_electric rail_fast ship container cable_car subway aircraft wheelchair scooter drone" speed="27.78" length="19.25" shape="516.97,202.40 508.79,184.97"/>
    </edge>
    <edge id=":13713276872_3" function="internal">
        <lane id=":13713276872_3_0" index="0" disallow="tram rail_urban rail rail_electric rail_fast ship container cable_car subway aircraft wheelchair scooter drone" speed="13.87" length="18.39" shape="516.97,202.40 514.49,196.56 512.99,191.68 512.46,187.77 512.91,184.81"/>
    </edge>
    <edge id=":13713276872_4" function="internal">
        <lane id=":13713276872_4_0" index="0" disallow="tram rail_urban rail rail_electric rail_fast ship container cable_car subway aircraft wheelchair scooter drone" speed="14.56" length="19.57" shape="519.74,199.38 516.17,197.82 512.58,195.44 509.11,191.76 505.90,186.33"/>
    </edge>
    <edge id=":13713276872_5" function="internal">
        <lane id=":13713276872_5_0" index="0" disallow="tram rail_urban rail rail_electric rail_fast ship container cable_car subway aircraft wheelchair scooter drone" speed="9.01" length="18.38" shape="519.74,199.38 515.25,196.98 512.62,193.75 511.83,189.69 512.91,184.81"/>
    </edge>
    <edge id=":13713276872_6" function="internal">
        <lane id=":13713276872_6_0" index="0" disallow="tram rail_urban rail rail_electric rail_fast ship container cable_car subway aircraft wheelchair scooter drone" speed="5.86" length="11.33" shape="515.90,185.95 514.34,188.83 512.64,189.63 510.79,188.34 508.79,184.97"/>
    </edge>
    <edge id=":13713276872_7" function="internal">
        <lane id=":13713276872_7_0" index="0" disallow="tram rail_urban rail rail_electric rail_fast ship container cable_car subway aircraft wheelchair scooter drone" speed="3.65" length="4.67" shape="515.90,185.95 514.73,186.79 513.84,186.88 513.23,186.22 512.91,184.81"/>
    </edge>
    <edge id=":2020642664_0" function="internal">
        <lane id=":2020642664_0_0" index="0" disallow="tram rail_urban rail rail_electric rail_fast ship container cable_car subway aircraft wheelchair scooter drone" speed="27.78" length="18.37" shape="523.10,212.87 518.06,211.22 514.50,210.43 510.86,210.07 505.54,209.75"/>
        <lane id=":2020642664_0_1" index="1" disallow="tram rail_urban rail rail_electric rail_fast ship container cable_car subway aircraft wheelchair scooter drone" speed="27.78" length="18.37" shape="524.16,209.85 518.87,208.12 515.14,207.28 511.32,206.89 505.75,206.55"/>
    </edge>
    <edge id=":2020642664_2" function="internal">
        <lane id=":2020642664_2_0" index="0" allow="bus bicycle" speed="14.57" length="18.61" shape="524.16,209.85 518.35,207.85 513.79,206.05 510.41,203.98 508.14,201.18"/>
    </edge>
    <edge id=":2020642664_3" function="internal">
        <lane id=":2020642664_3_0" index="0" disallow="tram rail_urban rail rail_electric rail_fast ship container cable_car subway aircraft wheelchair scooter drone" speed="11.67" length="12.80" shape="524.16,209.85 518.57,207.97 514.68,206.84 512.48,206.45 511.97,206.80"/>
        <lane id=":2020642664_3_1" index="1" disallow="tram rail_urban rail rail_electric rail_fast ship container cable_car subway aircraft wheelchair scooter drone" speed="10.54" length="10.37" shape="524.16,209.85 520.34,208.44 517.51,207.24 515.69,206.24 514.86,205.44"/>
        <lane id=":2020642664_3_2" index="2" disallow="tram rail_urban rail rail_electric rail_fast ship container cable_car subway aircraft wheelchair scooter drone" speed="9.77" length="8.85" shape="524.16,209.85 522.10,208.91 520.35,207.63 518.90,206.02 517.76,204.08"/>
    </edge>
    <edge id=":2020642667_0" function="internal">
        <lane id=":2020642667_0_0" index="0" disallow="tram rail_urban rail rail_electric rail_fast ship container cable_car subway aircraft wheelchair scooter drone" speed="27.78" length="17.17" shape="487.77,214.16 483.56,216.80 480.70,218.68 478.11,220.89 474.73,224.49"/>
        <lane id=":2020642667_0_1" index="1" disallow="tram rail_urban rail rail_electric rail_fast ship container cable_car subway aircraft wheelchair scooter drone" speed="27.78" length="17.17" shape="486.03,211.47 481.61,214.25 478.61,216.24 475.89,218.57 472.33,222.36"/>
    </edge>
    <edge id=":2020642667_2" function="internal">
        <lane id=":2020642667_2_0" index="0" allow="bus bicycle" speed="13.04" length="17.17" shape="481.05,207.90 480.67,210.37 479.09,213.60 476.31,217.60 472.33,222.36"/>
    </edge>
    <edge id=":2020642667_3" function="internal">
        <lane id=":2020642667_3_0" index="0" disallow="tram rail_urban rail rail_electric rail_fast ship container cable_car subway aircraft wheelchair scooter drone" speed="10.81" length="1.84" shape="480.41,214.49 480.19,216.32"/>
        <lane id=":2020642667_3_1" index="1" disallow="tram rail_urban rail rail_electric rail_fast ship container cable_car subway aircraft wheelchair scooter drone" speed="9.58" length="2.28" shape="477.23,214.83 477.00,215.98 476.47,216.95"/>
    </edge>
    <edge id=":2020642667_5" function="internal">
        <lane id=":2020642667_5_0" index="0" disallow="tram rail_urban rail rail_electric rail_fast ship container cable_car subway aircraft wheelchair scooter drone" speed="10.81" length="9.89" shape="480.19,216.32 479.17,218.59 477.34,221.32 474.73,224.49"/>
        <lane id=":2020642667_5_1" index="0" disallow="tram rail_urban rail rail_electric rail_fast ship container cable_car subway aircraft wheelchair scooter drone" speed="9.58" length="6.82" shape="476.47,216.95 476.10,217.62 474.55,219.74 472.33,222.36"/>
    </edge>
    <edge id=":2020642670_0" function="internal">
        <lane id=":2020642670_0_0" index="0" disallow="tram rail_urban rail rail_electric rail_fast ship container cable_car subway aircraft wheelchair scooter drone" speed="8.80" length="13.07" shape="544.21,231.57 542.06,229.20 539.41,227.81 536.25,227.40 532.59,227.96"/>
    </edge>
    <edge id=":2020642670_1" function="internal">
        <lane id=":2020642670_1_0" index="0" disallow="tram rail_urban rail rail_electric rail_fast ship container cable_car subway aircraft wheelchair scooter drone" speed="27.78" length="17.16" shape="544.21,231.57 541.42,227.51 539.25,224.90 536.73,222.62 532.87,219.54"/>
        <lane id=":2020642670_1_1" index="1" disallow="tram rail_urban rail rail_electric rail_fast ship container cable_car subway aircraft wheelchair scooter drone" speed="27.78" length="17.16" shape="546.87,229.79 543.91,225.49 541.62,222.71 538.95,220.29 534.85,217.03"/>
    </edge>
    <edge id=":2020642670_3" function="internal">
        <lane id=":2020642670_3_0" index="0" disallow="tram rail_urban rail rail_electric rail_fast ship container cable_car subway aircraft wheelchair scooter drone" speed="27.78" length="17.23" shape="549.25,224.55 544.25,225.25 540.84,225.85 537.48,226.65 532.59,227.96"/>
        <lane id=":2020642670_3_1" index="1" disallow="tram rail_urban rail rail_electric rail_fast ship container cable_car subway aircraft wheelchair scooter drone" speed="27.78" length="17.23" shape="548.83,221.38 543.70,222.09 540.22,222.71 536.77,223.53 531.77,224.87"/>
    </edge>
    <edge id=":2020642670_5" function="internal">
        <lane id=":2020642670_5_0" index="0" disallow="tram rail_urban rail rail_electric rail_fast ship container cable_car subway aircraft wheelchair scooter drone" speed="12.56" length="15.04" shape="548.83,221.38 545.23,221.47 541.71,220.78 538.24,219.30 534.85,217.03"/>
    </edge>
    <edge id=":2020642679_0" function="internal">
        <lane id=":2020642679_0_0" index="0" disallow="tram rail_urban rail rail_electric rail_fast ship container cable_car subway aircraft wheelchair scooter drone" speed="7.85" length="12.07" shape="472.00,244.19 468.49,245.51 466.08,247.29 464.76,249.54 464.55,252.25"/>
    </edge>
    <edge id=":2020642679_1" function="internal">
        <lane id=":2020642679_1_0" index="0" disallow="tram rail_urban rail rail_electric rail_fast ship container cable_car subway aircraft wheelchair scooter drone" speed="27.78" length="16.09" shape="472.00,244.19 456.41,248.26"/>
        <lane id=":2020642679_1_1" index="1" disallow="tram rail_urban rail rail_electric rail_fast ship container cable_car subway aircraft wheelchair scooter drone" speed="27.78" length="16.09" shape="471.17,241.10 455.62,245.16"/>
    </edge>
    <edge id=":2020642679_3" function="internal">
        <lane id=":2020642679_3_0" index="0" disallow="tram rail_urban rail rail_electric rail_fast ship container cable_car subway aircraft wheelchair scooter drone" speed="22.53" length="16.13" shape="467.35,237.05 465.76,241.44 464.71,244.52 464.28,247.67 464.55,252.25"/>
        <lane id=":2020642679_3_1" index="1" disallow="tram rail_urban rail rail_electric rail_fast ship container cable_car subway aircraft wheelchair scooter drone" speed="23.14" length="16.13" shape="464.32,236.04 462.63,240.67 461.50,243.92 461.03,247.24 461.31,252.08"/>
    </edge>
    <edge id=":2020642679_5" function="internal">
        <lane id=":2020642679_5_0" index="0" disallow="tram rail_urban rail rail_electric rail_fast ship container cable_car subway aircraft wheelchair scooter drone" speed="10.11" length="13.16" shape="464.32,236.04 462.83,239.44 460.89,242.10 458.49,244.00 455.62,245.16"/>
    </edge>
    <edge id=":2020642684_0" function="internal">
        <lane id=":2020642684_0_0" index="0" disallow="tram rail_urban rail rail_electric rail_fast ship container cable_car subway aircraft wheelchair scooter drone" speed="7.20" length="10.64" shape="542.91,252.18 545.81,251.02 547.72,249.36 548.64,247.21 548.58,244.56"/>
    </edge>
    <edge id=":2020642684_1" function="internal">
        <lane id=":2020642684_1_0" index="0" disallow="tram rail_urban rail rail_electric rail_fast ship container cable_car subway aircraft wheelchair scooter drone" speed="27.78" length="14.90" shape="542.91,252.18 557.35,248.39"/>
        <lane id=":2020642684_1_1" index="1" disallow="tram rail_urban rail rail_electric rail_fast ship container cable_car subway aircraft wheelchair scooter drone" speed="27.78" length="14.90" shape="543.75,255.27 558.14,251.49"/>
    </edge>
    <edge id=":2020642684_3" function="internal">
        <lane id=":2020642684_3_0" index="0" disallow="tram rail_urban rail rail_electric rail_fast ship container cable_car subway aircraft wheelchair scooter drone" speed="27.78" length="14.91" shape="548.34,259.20 548.91,254.86 549.27,251.85 549.23,248.86 548.58,244.56"/>
        <lane id=":2020642684_3_1" index="1" disallow="tram rail_urban rail rail_electric rail_fast ship container cable_car subway aircraft wheelchair scooter drone" speed="27.78" length="14.91" shape="551.52,259.55 552.11,255.11 552.51,252.04 552.50,248.99 551.85,244.60"/>
    </edge>
    <edge id=":2020642684_5" function="internal">
        <lane id=":2020642684_5_0" index="0" disallow="tram rail_urban rail rail_electric rail_fast ship container cable_car subway aircraft wheelchair scooter drone" speed="8.31" length="11.17" shape="551.52,259.55 552.20,256.59 553.53,254.26 555.51,252.56 558.14,251.49"/>
    </edge>
    <edge id=":2020642689_0" function="internal">
        <lane id=":2020642689_0_0" index="0" disallow="tram rail_urban rail rail_electric rail_fast ship container cable_car subway aircraft wheelchair scooter drone" speed="7.40" length="10.81" shape="467.40,266.37 468.83,268.70 470.80,270.10 473.32,270.58 476.39,270.14"/>
    </edge>
    <edge id=":2020642689_1" function="internal">
        <lane id=":2020642689_1_0" index="0" disallow="tram rail_urban rail rail_electric rail_fast ship container cable_car subway aircraft wheelchair scooter drone" speed="27.78" length="15.70" shape="467.40,266.37 469.18,270.53 470.61,273.29 472.37,275.86 475.14,279.44"/>
        <lane id=":2020642689_1_1" index="1" disallow="tram rail_urban rail rail_electric rail_fast ship container cable_car subway aircraft wheelchair scooter drone" speed="27.78" length="15.70" shape="464.45,267.60 466.33,271.99 467.84,274.90 469.69,277.62 472.61,281.41"/>
    </edge>
    <edge id=":2020642689_3" function="internal">
        <lane id=":2020642689_3_0" index="0" disallow="tram rail_urban rail rail_electric rail_fast ship container cable_car subway aircraft wheelchair scooter drone" speed="27.78" length="15.74" shape="461.17,273.70 476.39,270.14"/>
        <lane id=":2020642689_3_1" index="1" disallow="tram rail_urban rail rail_electric rail_fast ship container cable_car subway aircraft wheelchair scooter drone" speed="27.78" length="15.74" shape="461.78,276.84 477.22,273.23"/>
    </edge>
    <edge id=":2020642689_5" function="internal">
        <lane id=":2020642689_5_0" index="0" disallow="tram rail_urban rail rail_electric rail_fast ship container cable_car subway aircraft wheelchair scooter drone" speed="9.25" length="12.41" shape="461.78,276.84 464.83,276.66 467.65,277.37 470.24,278.95 472.61,281.41"/>
    </edge>
    <edge id=":2020642692_0" function="internal">
        <lane id=":2020642692_0_0" index="0" disallow="tram rail_urban rail rail_electric rail_fast ship container cable_car subway aircraft wheelchair scooter drone" speed="25.77" length="23.01" shape="527.46,287.77 532.74,284.14 536.86,281.29 540.35,277.90 543.72,272.64"/>
        <lane id=":2020642692_0_1" index="1" disallow="tram rail_urban rail rail_electric rail_fast ship container cable_car subway aircraft wheelchair scooter drone" speed="26.31" length="23.01" shape="529.37,290.34 534.75,286.61 539.12,283.53 542.85,279.91 546.33,274.54"/>
    </edge>
    <edge id=":2020642692_2" function="internal">
        <lane id=":2020642692_2_0" index="0" allow="bus bicycle" speed="27.78" length="63.25" shape="534.92,336.63 535.98,326.07 538.82,307.03 542.57,287.28 546.33,274.54"/>
    </edge>
    <edge id=":2020642692_3" function="internal">
        <lane id=":2020642692_3_0" index="0" disallow="tram rail_urban rail rail_electric rail_fast ship container cable_car subway aircraft wheelchair scooter drone" speed="27.78" length="59.83" shape="537.93,332.84 537.03,318.45 538.06,300.53 540.47,283.70 543.72,272.64"/>
        <lane id=":2020642692_3_1" index="1" disallow="tram rail_urban rail rail_electric rail_fast ship container cable_car subway aircraft wheelchair scooter drone" speed="27.78" length="59.83" shape="541.15,332.64 540.15,318.59 540.97,301.38 543.18,285.28 546.33,274.54"/>
    </edge>
    <edge id=":2020642699_0" function="internal">
        <lane id=":2020642699_0_0" index="0" disallow="tram rail_urban rail rail_electric rail_fast ship container cable_car subway aircraft wheelchair scooter drone" speed="27.78" length="21.89" shape="488.37,289.44 494.11,291.57 498.50,292.53 503.03,292.85 509.20,293.10"/>